Circuit: *** SPICE deck for cell 1odd1even{lay} from library CSM

_1odd1even:fa@1:r158: both pins shorted together -- ignoring.
_1odd1even:fa@4:r158: both pins shorted together -- ignoring.
_1odd1even:fa@10:r158: both pins shorted together -- ignoring.
_1odd1even:fa@11:r158: both pins shorted together -- ignoring.
_1odd1even:fa@12:r158: both pins shorted together -- ignoring.
_1odd1even:fa@13:r158: both pins shorted together -- ignoring.
_1odd1even:fa@14:r158: both pins shorted together -- ignoring.
_1odd1even:fa@15:r158: both pins shorted together -- ignoring.
_1odd1even:fa@16:r158: both pins shorted together -- ignoring.
_1odd1even:fa@17:r158: both pins shorted together -- ignoring.
_1odd1even:fa@18:r158: both pins shorted together -- ignoring.
_1odd1even:fa@19:r158: both pins shorted together -- ignoring.
_1odd1even:fa@20:r158: both pins shorted together -- ignoring.
_1odd1even:fa@21:r158: both pins shorted together -- ignoring.
_1odd1even:fa@22:r158: both pins shorted together -- ignoring.
_1odd1even:fa@23:r158: both pins shorted together -- ignoring.
