Circuit: *** SPICE deck for cell multiplier{sch} from library CSM

Per .tran options, skipping operating point for transient analysis.

t=4.58315e-010 FROM 5e-010 TO 9.58315e-010


Date: Fri Dec 08 18:39:17 2023
Total elapsed time: 4.040 seconds.

tnom = 27
temp = 27
method = modified trap
totiter = 2439
traniter = 2439
tranpoints = 1053
accept = 1053
rejected = 0
matrix size = 8521
fillins = 1928
solver = Normal
Thread vector: 2465.3/744.9[8] 418.4/122.2[8] 221.1/66.8[8] 75.0/26.0[8]  2592/500
Matrix Compiler1: 1.62 MB object code size  666.9/335.7/[205.8]
Matrix Compiler2: 1.12 MB object code size  297.8/246.7/[138.3]

