Circuit: *** SPICE deck for cell multiplier{sch} from library CSM

Per .tran options, skipping operating point for transient analysis.

t=4.58315e-010 FROM 5e-010 TO 9.58315e-010


Date: Fri Dec 08 18:11:17 2023
Total elapsed time: 4.082 seconds.

tnom = 27
temp = 27
method = modified trap
totiter = 2439
traniter = 2439
tranpoints = 1053
accept = 1053
rejected = 0
matrix size = 8521
fillins = 1928
solver = Normal
Thread vector: 2298.7/766.5[8] 354.3/121.1[8] 217.3/71.9[8] 71.2/25.6[8]  2592/500
Matrix Compiler1: 1.62 MB object code size  665.8/336.4/[192.2]
Matrix Compiler2: 1.12 MB object code size  287.6/252.0/[131.7]

